<?xml version='1.0' encoding='ISO-8859-1'?>
<febio_spec version="4.0">
    <Module type="solid" />
    <Globals>
        <Constants>
            <T>0</T>
            <P>0</P>
            <R>8.31446</R>
            <Fc>96485.3</Fc>
        </Constants>
    </Globals>
    <Material>
        <material id="1" name="Material 1" type="incomp neo-Hookean">
            <density>1</density>
            <k>10.0</k>
            <G>10.0</G>
        </material>
        <material id="2" name="Material 2" type="rigid body">
            <density>1.0</density>
            <center_of_mass>0,0,0</center_of_mass>
        </material>
    </Material>
    <Mesh>
        <Nodes name="bottom">
            <node id="1">0.0,0.0,0.0</node>
            <node id="2">1.0,0.0,0.0</node>
            <node id="3">1.0,1.0,0.0</node>
            <node id="4">0.0,1.0,0.0</node>
            <node id="5">0.0,0.0,1.0</node>
            <node id="6">1.0,0.0,1.0</node>
            <node id="7">1.0,1.0,1.0</node>
            <node id="8">0.0,1.0,1.0</node>
            <node id="9">0.09999999999981414,0.0,0.0</node>
            <node id="10">0.1999999999995569,0.0,0.0</node>
            <node id="11">0.299999999999265,0.0,0.0</node>
            <node id="12">0.3999999999989731,0.0,0.0</node>
            <node id="13">0.4999999999986921,0.0,0.0</node>
            <node id="14">0.599999999998945,0.0,0.0</node>
            <node id="15">0.6999999999992088,0.0,0.0</node>
            <node id="16">0.7999999999994725,0.0,0.0</node>
            <node id="17">0.8999999999997362,0.0,0.0</node>
            <node id="18">1.0,0.09999999999981414,0.0</node>
            <node id="19">1.0,0.1999999999995569,0.0</node>
            <node id="20">1.0,0.299999999999265,0.0</node>
<!-- ... 1311 like lines cut -->
        </Nodes>
        <Nodes name="top">
            <node id="1332">0.0,0.0,1.1</node>
            <node id="1333">1.0,0.0,1.1</node>
            <node id="1334">1.0,1.0,1.1</node>
            <node id="1335">0.0,1.0,1.1</node>
            <node id="1336">0.0,0.0,2.1</node>
            <node id="1337">1.0,0.0,2.1</node>
            <node id="1338">1.0,1.0,2.1</node>
            <node id="1339">0.0,1.0,2.1</node>
            <node id="1340">0.09999999999981414,0.0,1.1</node>
            <node id="1341">0.1999999999995569,0.0,1.1</node>
            <node id="1342">0.299999999999265,0.0,1.1</node>
            <node id="1343">0.3999999999989731,0.0,1.1</node>
            <node id="1344">0.4999999999986921,0.0,1.1</node>
            <node id="1345">0.599999999998945,0.0,1.1</node>
            <node id="1346">0.6999999999992088,0.0,1.1</node>
            <node id="1347">0.7999999999994725,0.0,1.1</node>
            <node id="1348">0.8999999999997362,0.0,1.1</node>
            <node id="1349">1.0,0.09999999999981414,1.1</node>
            <node id="1350">1.0,0.1999999999995569,1.1</node>
            <node id="1351">1.0,0.299999999999265,1.1</node>
<!-- ... 1311 like lines cut -->
        </Nodes>
        <Elements type="hex8" name="bottom">
            <elem id="1">1,9,117,44,81,198,603,513</elem>
            <elem id="2">81,198,603,513,82,199,604,514</elem>
            <elem id="3">82,199,604,514,83,200,605,515</elem>
            <elem id="4">83,200,605,515,84,201,606,516</elem>
            <elem id="5">84,201,606,516,85,202,607,517</elem>
            <elem id="6">85,202,607,517,86,203,608,518</elem>
            <elem id="7">86,203,608,518,87,204,609,519</elem>
            <elem id="8">87,204,609,519,88,205,610,520</elem>
            <elem id="9">88,205,610,520,89,206,611,521</elem>
            <elem id="10">89,206,611,521,5,45,522,80</elem>
            <elem id="11">44,117,118,43,513,603,612,504</elem>
            <elem id="12">513,603,612,504,514,604,613,505</elem>
            <elem id="13">514,604,613,505,515,605,614,506</elem>
            <elem id="14">515,605,614,506,516,606,615,507</elem>
            <elem id="15">516,606,615,507,517,607,616,508</elem>
            <elem id="16">517,607,616,508,518,608,617,509</elem>
            <elem id="17">518,608,617,509,519,609,618,510</elem>
            <elem id="18">519,609,618,510,520,610,619,511</elem>
            <elem id="19">520,610,619,511,521,611,620,512</elem>
            <elem id="20">521,611,620,512,80,522,523,79</elem>
<!-- ... 980 like lines cut -->
        </Elements>
        <Elements type="hex8" name="top">
            <elem id="1001">1332,1340,1448,1375,1412,1529,1934,1844</elem>
            <elem id="1002">1412,1529,1934,1844,1413,1530,1935,1845</elem>
            <elem id="1003">1413,1530,1935,1845,1414,1531,1936,1846</elem>
            <elem id="1004">1414,1531,1936,1846,1415,1532,1937,1847</elem>
            <elem id="1005">1415,1532,1937,1847,1416,1533,1938,1848</elem>
            <elem id="1006">1416,1533,1938,1848,1417,1534,1939,1849</elem>
            <elem id="1007">1417,1534,1939,1849,1418,1535,1940,1850</elem>
            <elem id="1008">1418,1535,1940,1850,1419,1536,1941,1851</elem>
            <elem id="1009">1419,1536,1941,1851,1420,1537,1942,1852</elem>
            <elem id="1010">1420,1537,1942,1852,1336,1376,1853,1411</elem>
            <elem id="1011">1375,1448,1449,1374,1844,1934,1943,1835</elem>
            <elem id="1012">1844,1934,1943,1835,1845,1935,1944,1836</elem>
            <elem id="1013">1845,1935,1944,1836,1846,1936,1945,1837</elem>
            <elem id="1014">1846,1936,1945,1837,1847,1937,1946,1838</elem>
            <elem id="1015">1847,1937,1946,1838,1848,1938,1947,1839</elem>
            <elem id="1016">1848,1938,1947,1839,1849,1939,1948,1840</elem>
            <elem id="1017">1849,1939,1948,1840,1850,1940,1949,1841</elem>
            <elem id="1018">1850,1940,1949,1841,1851,1941,1950,1842</elem>
            <elem id="1019">1851,1941,1950,1842,1852,1942,1951,1843</elem>
            <elem id="1020">1852,1942,1951,1843,1411,1853,1854,1410</elem>
<!-- ... 980 like lines cut -->
        </Elements>
        <Surface name="bottom_-z">
            <quad4 id="1">1,9,117,44</quad4>
            <quad4 id="2">44,117,118,43</quad4>
            <quad4 id="3">43,118,119,42</quad4>
            <quad4 id="4">42,119,120,41</quad4>
            <quad4 id="5">41,120,121,40</quad4>
            <quad4 id="6">40,121,122,39</quad4>
            <quad4 id="7">39,122,123,38</quad4>
            <quad4 id="8">38,123,124,37</quad4>
            <quad4 id="9">37,124,125,36</quad4>
            <quad4 id="10">36,125,35,4</quad4>
            <quad4 id="11">9,10,126,117</quad4>
            <quad4 id="12">117,126,127,118</quad4>
            <quad4 id="13">118,127,128,119</quad4>
            <quad4 id="14">119,128,129,120</quad4>
            <quad4 id="15">120,129,130,121</quad4>
            <quad4 id="16">121,130,131,122</quad4>
            <quad4 id="17">122,131,132,123</quad4>
            <quad4 id="18">123,132,133,124</quad4>
            <quad4 id="19">124,133,134,125</quad4>
            <quad4 id="20">125,134,34,35</quad4>
<!-- ... 80 like lines cut -->
        </Surface>
        <Surface name="bottom_-y">
            <quad4 id="1">1,9,198,81</quad4>
            <quad4 id="2">81,198,199,82</quad4>
            <quad4 id="3">82,199,200,83</quad4>
            <quad4 id="4">83,200,201,84</quad4>
            <quad4 id="5">84,201,202,85</quad4>
            <quad4 id="6">85,202,203,86</quad4>
            <quad4 id="7">86,203,204,87</quad4>
            <quad4 id="8">87,204,205,88</quad4>
            <quad4 id="9">88,205,206,89</quad4>
            <quad4 id="10">89,206,45,5</quad4>
            <quad4 id="11">9,10,207,198</quad4>
            <quad4 id="12">198,207,208,199</quad4>
            <quad4 id="13">199,208,209,200</quad4>
            <quad4 id="14">200,209,210,201</quad4>
            <quad4 id="15">201,210,211,202</quad4>
            <quad4 id="16">202,211,212,203</quad4>
            <quad4 id="17">203,212,213,204</quad4>
            <quad4 id="18">204,213,214,205</quad4>
            <quad4 id="19">205,214,215,206</quad4>
            <quad4 id="20">206,215,46,45</quad4>
<!-- ... 80 like lines cut -->
        </Surface>
        <Surface name="bottom_+x">
            <quad4 id="1">2,18,279,90</quad4>
            <quad4 id="2">90,279,280,91</quad4>
            <quad4 id="3">91,280,281,92</quad4>
            <quad4 id="4">92,281,282,93</quad4>
            <quad4 id="5">93,282,283,94</quad4>
            <quad4 id="6">94,283,284,95</quad4>
            <quad4 id="7">95,284,285,96</quad4>
            <quad4 id="8">96,285,286,97</quad4>
            <quad4 id="9">97,286,287,98</quad4>
            <quad4 id="10">98,287,54,6</quad4>
            <quad4 id="11">18,19,288,279</quad4>
            <quad4 id="12">279,288,289,280</quad4>
            <quad4 id="13">280,289,290,281</quad4>
            <quad4 id="14">281,290,291,282</quad4>
            <quad4 id="15">282,291,292,283</quad4>
            <quad4 id="16">283,292,293,284</quad4>
            <quad4 id="17">284,293,294,285</quad4>
            <quad4 id="18">285,294,295,286</quad4>
            <quad4 id="19">286,295,296,287</quad4>
            <quad4 id="20">287,296,55,54</quad4>
<!-- ... 80 like lines cut -->
        </Surface>
        <Surface name="bottom_+y">
            <quad4 id="1">3,27,360,99</quad4>
            <quad4 id="2">99,360,361,100</quad4>
            <quad4 id="3">100,361,362,101</quad4>
            <quad4 id="4">101,362,363,102</quad4>
            <quad4 id="5">102,363,364,103</quad4>
            <quad4 id="6">103,364,365,104</quad4>
            <quad4 id="7">104,365,366,105</quad4>
            <quad4 id="8">105,366,367,106</quad4>
            <quad4 id="9">106,367,368,107</quad4>
            <quad4 id="10">107,368,63,7</quad4>
            <quad4 id="11">27,28,369,360</quad4>
            <quad4 id="12">360,369,370,361</quad4>
            <quad4 id="13">361,370,371,362</quad4>
            <quad4 id="14">362,371,372,363</quad4>
            <quad4 id="15">363,372,373,364</quad4>
            <quad4 id="16">364,373,374,365</quad4>
            <quad4 id="17">365,374,375,366</quad4>
            <quad4 id="18">366,375,376,367</quad4>
            <quad4 id="19">367,376,377,368</quad4>
            <quad4 id="20">368,377,64,63</quad4>
<!-- ... 80 like lines cut -->
        </Surface>
        <Surface name="bottom_-x">
            <quad4 id="1">4,36,441,108</quad4>
            <quad4 id="2">108,441,442,109</quad4>
            <quad4 id="3">109,442,443,110</quad4>
            <quad4 id="4">110,443,444,111</quad4>
            <quad4 id="5">111,444,445,112</quad4>
            <quad4 id="6">112,445,446,113</quad4>
            <quad4 id="7">113,446,447,114</quad4>
            <quad4 id="8">114,447,448,115</quad4>
            <quad4 id="9">115,448,449,116</quad4>
            <quad4 id="10">116,449,72,8</quad4>
            <quad4 id="11">36,37,450,441</quad4>
            <quad4 id="12">441,450,451,442</quad4>
            <quad4 id="13">442,451,452,443</quad4>
            <quad4 id="14">443,452,453,444</quad4>
            <quad4 id="15">444,453,454,445</quad4>
            <quad4 id="16">445,454,455,446</quad4>
            <quad4 id="17">446,455,456,447</quad4>
            <quad4 id="18">447,456,457,448</quad4>
            <quad4 id="19">448,457,458,449</quad4>
            <quad4 id="20">449,458,73,72</quad4>
<!-- ... 80 like lines cut -->
        </Surface>
        <Surface name="bottom_+z">
            <quad4 id="1">5,45,522,80</quad4>
            <quad4 id="2">80,522,523,79</quad4>
            <quad4 id="3">79,523,524,78</quad4>
            <quad4 id="4">78,524,525,77</quad4>
            <quad4 id="5">77,525,526,76</quad4>
            <quad4 id="6">76,526,527,75</quad4>
            <quad4 id="7">75,527,528,74</quad4>
            <quad4 id="8">74,528,529,73</quad4>
            <quad4 id="9">73,529,530,72</quad4>
            <quad4 id="10">72,530,71,8</quad4>
            <quad4 id="11">45,46,531,522</quad4>
            <quad4 id="12">522,531,532,523</quad4>
            <quad4 id="13">523,532,533,524</quad4>
            <quad4 id="14">524,533,534,525</quad4>
            <quad4 id="15">525,534,535,526</quad4>
            <quad4 id="16">526,535,536,527</quad4>
            <quad4 id="17">527,536,537,528</quad4>
            <quad4 id="18">528,537,538,529</quad4>
            <quad4 id="19">529,538,539,530</quad4>
            <quad4 id="20">530,539,70,71</quad4>
<!-- ... 80 like lines cut -->
        </Surface>
        <Surface name="top_-z">
            <quad4 id="1">1332,1375,1448,1340</quad4>
            <quad4 id="2">1375,1374,1449,1448</quad4>
            <quad4 id="3">1374,1373,1450,1449</quad4>
            <quad4 id="4">1373,1372,1451,1450</quad4>
            <quad4 id="5">1372,1371,1452,1451</quad4>
            <quad4 id="6">1371,1370,1453,1452</quad4>
            <quad4 id="7">1370,1369,1454,1453</quad4>
            <quad4 id="8">1369,1368,1455,1454</quad4>
            <quad4 id="9">1368,1367,1456,1455</quad4>
            <quad4 id="10">1367,1335,1366,1456</quad4>
            <quad4 id="11">1340,1448,1457,1341</quad4>
            <quad4 id="12">1448,1449,1458,1457</quad4>
            <quad4 id="13">1449,1450,1459,1458</quad4>
            <quad4 id="14">1450,1451,1460,1459</quad4>
            <quad4 id="15">1451,1452,1461,1460</quad4>
            <quad4 id="16">1452,1453,1462,1461</quad4>
            <quad4 id="17">1453,1454,1463,1462</quad4>
            <quad4 id="18">1454,1455,1464,1463</quad4>
            <quad4 id="19">1455,1456,1465,1464</quad4>
            <quad4 id="20">1456,1366,1365,1465</quad4>
<!-- ... 80 like lines cut -->
        </Surface>
        <Surface name="top_-y">
            <quad4 id="1">1332,1340,1529,1412</quad4>
            <quad4 id="2">1412,1529,1530,1413</quad4>
            <quad4 id="3">1413,1530,1531,1414</quad4>
            <quad4 id="4">1414,1531,1532,1415</quad4>
            <quad4 id="5">1415,1532,1533,1416</quad4>
            <quad4 id="6">1416,1533,1534,1417</quad4>
            <quad4 id="7">1417,1534,1535,1418</quad4>
            <quad4 id="8">1418,1535,1536,1419</quad4>
            <quad4 id="9">1419,1536,1537,1420</quad4>
            <quad4 id="10">1420,1537,1376,1336</quad4>
            <quad4 id="11">1340,1341,1538,1529</quad4>
            <quad4 id="12">1529,1538,1539,1530</quad4>
            <quad4 id="13">1530,1539,1540,1531</quad4>
            <quad4 id="14">1531,1540,1541,1532</quad4>
            <quad4 id="15">1532,1541,1542,1533</quad4>
            <quad4 id="16">1533,1542,1543,1534</quad4>
            <quad4 id="17">1534,1543,1544,1535</quad4>
            <quad4 id="18">1535,1544,1545,1536</quad4>
            <quad4 id="19">1536,1545,1546,1537</quad4>
            <quad4 id="20">1537,1546,1377,1376</quad4>
<!-- ... 80 like lines cut -->
        </Surface>
        <Surface name="top_+x">
            <quad4 id="1">1333,1349,1610,1421</quad4>
            <quad4 id="2">1421,1610,1611,1422</quad4>
            <quad4 id="3">1422,1611,1612,1423</quad4>
            <quad4 id="4">1423,1612,1613,1424</quad4>
            <quad4 id="5">1424,1613,1614,1425</quad4>
            <quad4 id="6">1425,1614,1615,1426</quad4>
            <quad4 id="7">1426,1615,1616,1427</quad4>
            <quad4 id="8">1427,1616,1617,1428</quad4>
            <quad4 id="9">1428,1617,1618,1429</quad4>
            <quad4 id="10">1429,1618,1385,1337</quad4>
            <quad4 id="11">1349,1350,1619,1610</quad4>
            <quad4 id="12">1610,1619,1620,1611</quad4>
            <quad4 id="13">1611,1620,1621,1612</quad4>
            <quad4 id="14">1612,1621,1622,1613</quad4>
            <quad4 id="15">1613,1622,1623,1614</quad4>
            <quad4 id="16">1614,1623,1624,1615</quad4>
            <quad4 id="17">1615,1624,1625,1616</quad4>
            <quad4 id="18">1616,1625,1626,1617</quad4>
            <quad4 id="19">1617,1626,1627,1618</quad4>
            <quad4 id="20">1618,1627,1386,1385</quad4>
<!-- ... 80 like lines cut -->
        </Surface>
        <Surface name="top_+y">
            <quad4 id="1">1334,1358,1691,1430</quad4>
            <quad4 id="2">1430,1691,1692,1431</quad4>
            <quad4 id="3">1431,1692,1693,1432</quad4>
            <quad4 id="4">1432,1693,1694,1433</quad4>
            <quad4 id="5">1433,1694,1695,1434</quad4>
            <quad4 id="6">1434,1695,1696,1435</quad4>
            <quad4 id="7">1435,1696,1697,1436</quad4>
            <quad4 id="8">1436,1697,1698,1437</quad4>
            <quad4 id="9">1437,1698,1699,1438</quad4>
            <quad4 id="10">1438,1699,1394,1338</quad4>
            <quad4 id="11">1358,1359,1700,1691</quad4>
            <quad4 id="12">1691,1700,1701,1692</quad4>
            <quad4 id="13">1692,1701,1702,1693</quad4>
            <quad4 id="14">1693,1702,1703,1694</quad4>
            <quad4 id="15">1694,1703,1704,1695</quad4>
            <quad4 id="16">1695,1704,1705,1696</quad4>
            <quad4 id="17">1696,1705,1706,1697</quad4>
            <quad4 id="18">1697,1706,1707,1698</quad4>
            <quad4 id="19">1698,1707,1708,1699</quad4>
            <quad4 id="20">1699,1708,1395,1394</quad4>
<!-- ... 80 like lines cut -->
        </Surface>
        <Surface name="top_-x">
            <quad4 id="1">1335,1367,1772,1439</quad4>
            <quad4 id="2">1439,1772,1773,1440</quad4>
            <quad4 id="3">1440,1773,1774,1441</quad4>
            <quad4 id="4">1441,1774,1775,1442</quad4>
            <quad4 id="5">1442,1775,1776,1443</quad4>
            <quad4 id="6">1443,1776,1777,1444</quad4>
            <quad4 id="7">1444,1777,1778,1445</quad4>
            <quad4 id="8">1445,1778,1779,1446</quad4>
            <quad4 id="9">1446,1779,1780,1447</quad4>
            <quad4 id="10">1447,1780,1403,1339</quad4>
            <quad4 id="11">1367,1368,1781,1772</quad4>
            <quad4 id="12">1772,1781,1782,1773</quad4>
            <quad4 id="13">1773,1782,1783,1774</quad4>
            <quad4 id="14">1774,1783,1784,1775</quad4>
            <quad4 id="15">1775,1784,1785,1776</quad4>
            <quad4 id="16">1776,1785,1786,1777</quad4>
            <quad4 id="17">1777,1786,1787,1778</quad4>
            <quad4 id="18">1778,1787,1788,1779</quad4>
            <quad4 id="19">1779,1788,1789,1780</quad4>
            <quad4 id="20">1780,1789,1404,1403</quad4>
<!-- ... 80 like lines cut -->
        </Surface>
        <Surface name="top_+z">
            <quad4 id="1">1336,1376,1853,1411</quad4>
            <quad4 id="2">1411,1853,1854,1410</quad4>
            <quad4 id="3">1410,1854,1855,1409</quad4>
            <quad4 id="4">1409,1855,1856,1408</quad4>
            <quad4 id="5">1408,1856,1857,1407</quad4>
            <quad4 id="6">1407,1857,1858,1406</quad4>
            <quad4 id="7">1406,1858,1859,1405</quad4>
            <quad4 id="8">1405,1859,1860,1404</quad4>
            <quad4 id="9">1404,1860,1861,1403</quad4>
            <quad4 id="10">1403,1861,1402,1339</quad4>
            <quad4 id="11">1376,1377,1862,1853</quad4>
            <quad4 id="12">1853,1862,1863,1854</quad4>
            <quad4 id="13">1854,1863,1864,1855</quad4>
            <quad4 id="14">1855,1864,1865,1856</quad4>
            <quad4 id="15">1856,1865,1866,1857</quad4>
            <quad4 id="16">1857,1866,1867,1858</quad4>
            <quad4 id="17">1858,1867,1868,1859</quad4>
            <quad4 id="18">1859,1868,1869,1860</quad4>
            <quad4 id="19">1860,1869,1870,1861</quad4>
            <quad4 id="20">1861,1870,1401,1402</quad4>
<!-- ... 80 like lines cut -->
        </Surface>
        <NodeSet name="bottom_-z">1,2,3,4,9,10,11,12,13,14,15,16,17,18,19,20,21,22,23,24,25,26,27,28,29,30,31,32,33,34,35,36,37,38,39,40,41,42,43,44,117,118,119,120,121,122,123,124,125,126,127,128,129,130,131,132,133,134,135,136,137,138,139,140,141,142,143,144,145,146,147,148,149,150,151,152,153,154,155,156,157,158,159,160,161,162,163,164,165,166,167,168,169,170,171,172,173,174,175,176,177,178,179
        <NodeSet name="bottom_-y">1,2,5,6,9,10,11,12,13,14,15,16,17,45,46,47,48,49,50,51,52,53,81,82,83,84,85,86,87,88,89,90,91,92,93,94,95,96,97,98,198,199,200,201,202,203,204,205,206,207,208,209,210,211,212,213,214,215,216,217,218,219,220,221,222,223,224,225,226,227,228,229,230,231,232,233,234,235,236,237,238,239,240,241,242,243,244,245,246,247,248,249,250,251,252,253,254,255,256,257,258,259,260
        <NodeSet name="bottom_+x">2,3,6,7,18,19,20,21,22,23,24,25,26,54,55,56,57,58,59,60,61,62,90,91,92,93,94,95,96,97,98,99,100,101,102,103,104,105,106,107,279,280,281,282,283,284,285,286,287,288,289,290,291,292,293,294,295,296,297,298,299,300,301,302,303,304,305,306,307,308,309,310,311,312,313,314,315,316,317,318,319,320,321,322,323,324,325,326,327,328,329,330,331,332,333,334,335,336,337,338,33
        <NodeSet name="bottom_+y">3,4,7,8,27,28,29,30,31,32,33,34,35,63,64,65,66,67,68,69,70,71,99,100,101,102,103,104,105,106,107,108,109,110,111,112,113,114,115,116,360,361,362,363,364,365,366,367,368,369,370,371,372,373,374,375,376,377,378,379,380,381,382,383,384,385,386,387,388,389,390,391,392,393,394,395,396,397,398,399,400,401,402,403,404,405,406,407,408,409,410,411,412,413,414,415,416,417,4
        <NodeSet name="bottom_-x">1,4,5,8,36,37,38,39,40,41,42,43,44,72,73,74,75,76,77,78,79,80,81,82,83,84,85,86,87,88,89,108,109,110,111,112,113,114,115,116,441,442,443,444,445,446,447,448,449,450,451,452,453,454,455,456,457,458,459,460,461,462,463,464,465,466,467,468,469,470,471,472,473,474,475,476,477,478,479,480,481,482,483,484,485,486,487,488,489,490,491,492,493,494,495,496,497,498,499,500,5
        <NodeSet name="bottom_+z">5,6,7,8,45,46,47,48,49,50,51,52,53,54,55,56,57,58,59,60,61,62,63,64,65,66,67,68,69,70,71,72,73,74,75,76,77,78,79,80,522,523,524,525,526,527,528,529,530,531,532,533,534,535,536,537,538,539,540,541,542,543,544,545,546,547,548,549,550,551,552,553,554,555,556,557,558,559,560,561,562,563,564,565,566,567,568,569,570,571,572,573,574,575,576,577,578,579,580,581,582,583,58
        <NodeSet name="top_-z">1332,1333,1334,1335,1340,1341,1342,1343,1344,1345,1346,1347,1348,1349,1350,1351,1352,1353,1354,1355,1356,1357,1358,1359,1360,1361,1362,1363,1364,1365,1366,1367,1368,1369,1370,1371,1372,1373,1374,1375,1448,1449,1450,1451,1452,1453,1454,1455,1456,1457,1458,1459,1460,1461,1462,1463,1464,1465,1466,1467,1468,1469,1470,1471,1472,1473,1474,1475,1476,1477,1478,1479,1480,1481
        <NodeSet name="top_-y">1332,1333,1336,1337,1340,1341,1342,1343,1344,1345,1346,1347,1348,1376,1377,1378,1379,1380,1381,1382,1383,1384,1412,1413,1414,1415,1416,1417,1418,1419,1420,1421,1422,1423,1424,1425,1426,1427,1428,1429,1529,1530,1531,1532,1533,1534,1535,1536,1537,1538,1539,1540,1541,1542,1543,1544,1545,1546,1547,1548,1549,1550,1551,1552,1553,1554,1555,1556,1557,1558,1559,1560,1561,1562
        <NodeSet name="top_+x">1333,1334,1337,1338,1349,1350,1351,1352,1353,1354,1355,1356,1357,1385,1386,1387,1388,1389,1390,1391,1392,1393,1421,1422,1423,1424,1425,1426,1427,1428,1429,1430,1431,1432,1433,1434,1435,1436,1437,1438,1610,1611,1612,1613,1614,1615,1616,1617,1618,1619,1620,1621,1622,1623,1624,1625,1626,1627,1628,1629,1630,1631,1632,1633,1634,1635,1636,1637,1638,1639,1640,1641,1642,1643
        <NodeSet name="top_+y">1334,1335,1338,1339,1358,1359,1360,1361,1362,1363,1364,1365,1366,1394,1395,1396,1397,1398,1399,1400,1401,1402,1430,1431,1432,1433,1434,1435,1436,1437,1438,1439,1440,1441,1442,1443,1444,1445,1446,1447,1691,1692,1693,1694,1695,1696,1697,1698,1699,1700,1701,1702,1703,1704,1705,1706,1707,1708,1709,1710,1711,1712,1713,1714,1715,1716,1717,1718,1719,1720,1721,1722,1723,1724
        <NodeSet name="top_-x">1332,1335,1336,1339,1367,1368,1369,1370,1371,1372,1373,1374,1375,1403,1404,1405,1406,1407,1408,1409,1410,1411,1412,1413,1414,1415,1416,1417,1418,1419,1420,1439,1440,1441,1442,1443,1444,1445,1446,1447,1772,1773,1774,1775,1776,1777,1778,1779,1780,1781,1782,1783,1784,1785,1786,1787,1788,1789,1790,1791,1792,1793,1794,1795,1796,1797,1798,1799,1800,1801,1802,1803,1804,1805
        <NodeSet name="top_+z">1336,1337,1338,1339,1376,1377,1378,1379,1380,1381,1382,1383,1384,1385,1386,1387,1388,1389,1390,1391,1392,1393,1394,1395,1396,1397,1398,1399,1400,1401,1402,1403,1404,1405,1406,1407,1408,1409,1410,1411,1853,1854,1855,1856,1857,1858,1859,1860,1861,1862,1863,1864,1865,1866,1867,1868,1869,1870,1871,1872,1873,1874,1875,1876,1877,1878,1879,1880,1881,1882,1883,1884,1885,1886
        <SurfacePair name="contact_pair">
            <primary>top_-z</primary>
            <secondary>bottom_+z</secondary>
        </SurfacePair>
    </Mesh>
    <MeshDomains>
        <SolidDomain name="bottom" mat="Material 1" />
        <SolidDomain name="top" mat="Material 2" />
    </MeshDomains>
    <Step>
        <step id="1" name="Step 1">
            <Control>
                <analysis>STATIC</analysis>
                <time_steps>100</time_steps>
                <step_size>0.02</step_size>
                <plot_zero_state>0</plot_zero_state>
                <plot_range>0,-1</plot_range>
                <plot_level>PLOT_MAJOR_ITRS</plot_level>
                <output_level>OUTPUT_MAJOR_ITRS</output_level>
                <plot_stride>1</plot_stride>
                <adaptor_re_solve>0</adaptor_re_solve>
                <solver type="solid">
                    <symmetric_stiffness>symmetric</symmetric_stiffness>
                    <equation_scheme>staggered</equation_scheme>
                    <equation_order>default</equation_order>
                    <optimize_bw>0</optimize_bw>
                    <lstol>0.9</lstol>
                    <lsmin>0.01</lsmin>
                    <lsiter>5</lsiter>
                    <max_refs>15</max_refs>
                    <check_zero_diagonal>0</check_zero_diagonal>
                    <zero_diagonal_tol>0</zero_diagonal_tol>
                    <force_partition>0</force_partition>
                    <reform_each_time_step>1</reform_each_time_step>
                    <reform_augment>0</reform_augment>
                    <diverge_reform>1</diverge_reform>
                    <min_residual>1e-20</min_residual>
                    <max_residual>0</max_residual>
                    <dtol>0.001</dtol>
                    <etol>0.01</etol>
                    <rtol>0</rtol>
                    <rhoi>-2</rhoi>
                    <alpha>1</alpha>
                    <beta>0.25</beta>
                    <gamma>0.5</gamma>
                    <logSolve>0</logSolve>
                    <arc_length>0</arc_length>
                    <arc_length_scale>0</arc_length_scale>
                    <qn_method type="BFGS">
                        <max_ups>10</max_ups>
                        <max_buffer_size>0</max_buffer_size>
                        <cycle_buffer>1</cycle_buffer>
                        <cmax>100000</cmax>
                    </qn_method>
                </solver>
            </Control>
            <Boundary>
                <bc name="fix" node_set="bottom_-z" type="zero displacement">
                    <x_dof>1</x_dof>
                    <y_dof>1</y_dof>
                    <z_dof>1</z_dof>
                </bc>
            </Boundary>
            <Rigid>
                <rigid_bc name="rigid displacement" type="rigid_displacement">
                    <rb>Material 2</rb>
                    <dof>z</dof>
                    <value lc="1">-0.2</value>
                    <relative>False</relative>
                </rigid_bc>
                <rigid_bc name="rigidFix" type="rigid_fixed">
                    <rb>Material 2</rb>
                    <Rx_dof>1</Rx_dof>
                    <Ry_dof>1</Ry_dof>
                    <Rz_dof>0</Rz_dof>
                    <Ru_dof>1</Ru_dof>
                    <Rv_dof>1</Rv_dof>
                    <Rw_dof>1</Rw_dof>
                </rigid_bc>
            </Rigid>
            <Contact>
                <contact type="sliding-elastic" name="Contact" surface_pair="contact_pair">
                    <laugon>0</laugon>
                    <tolerance>0.2</tolerance>
                    <gaptol>0.0</gaptol>
                    <penalty>100</penalty>
                    <auto_penalty>True</auto_penalty>
                    <two_pass>True</two_pass>
                    <search_tol>0.01</search_tol>
                    <symmetric_stiffness>1</symmetric_stiffness>
                    <search_radius>1.0</search_radius>
                    <seg_up>0</seg_up>
                    <tension>False</tension>
                    <minaug>0</minaug>
                    <maxaug>10</maxaug>
                    <fric_coeff>0.0</fric_coeff>
                    <smooth_aug>False</smooth_aug>
                    <node_reloc>False</node_reloc>
                    <flip_primary>True</flip_primary>
                    <flip_secondary>False</flip_secondary>
                    <knmult>0.0</knmult>
                    <update_penalty>False</update_penalty>
                    <shell_bottom_primary>False</shell_bottom_primary>
                    <shell_bottom_secondary>False</shell_bottom_secondary>
                </contact>
            </Contact>
            </step>
    </Step>
    <LoadData>
        <load_controller id="1" name="LC1" type="loadcurve">
            <interpolate>LINEAR</interpolate>
            <extend>EXTRAPOLATE</extend>
            <points>
                <pt>0,0</pt>
                <pt>1,1</pt>
                <pt>2,0</pt>
            </points>
        </load_controller>
    </LoadData>
    <Output>
        <plotfile type="febio">
            <var type="displacement" />
            <var type="stress" />
            <var type="relative volume" />
            <var type="contact gap" />
            <var type="contact force" />
        </plotfile>
    </Output>
</febio_spec>
