<?xml version='1.0' encoding='ISO-8859-1'?>
<febio_spec version="4.0">
    <Module type="solid" />
    <Globals>
        <Constants>
            <T>0</T>
            <P>0</P>
            <R>8.31446</R>
            <Fc>96485.3</Fc>
        </Constants>
    </Globals>
    <Material>
        <material id="1" name="Material 1" type="incomp neo-Hookean">
            <density>1</density>
            <k>10.0</k>
            <G>10.0</G>
        </material>
    </Material>
    <Mesh>
        <Nodes name="Object1">
            <node id="1">0.0,0.0,0.0</node>
            <node id="2">1.0,0.0,0.0</node>
            <node id="3">1.0,1.0,0.0</node>
            <node id="4">0.0,1.0,0.0</node>
            <node id="5">0.0,0.0,1.0</node>
            <node id="6">1.0,0.0,1.0</node>
            <node id="7">1.0,1.0,1.0</node>
            <node id="8">0.0,1.0,1.0</node>
            <node id="9">0.09999999999981414,0.0,0.0</node>
            <node id="10">0.1999999999995569,0.0,0.0</node>
            <node id="11">0.299999999999265,0.0,0.0</node>
            <node id="12">0.3999999999989731,0.0,0.0</node>
            <node id="13">0.4999999999986921,0.0,0.0</node>
            <node id="14">0.599999999998945,0.0,0.0</node>
            <node id="15">0.6999999999992088,0.0,0.0</node>
            <node id="16">0.7999999999994725,0.0,0.0</node>
            <node id="17">0.8999999999997362,0.0,0.0</node>
            <node id="18">1.0,0.09999999999981414,0.0</node>
            <node id="19">1.0,0.1999999999995569,0.0</node>
            <node id="20">1.0,0.299999999999265,0.0</node>
<!-- ... 1311 like lines cut -->
        </Nodes>
        <Elements type="hex8" name="volume">
            <elem id="1">1,9,117,44,81,198,603,513</elem>
            <elem id="2">81,198,603,513,82,199,604,514</elem>
            <elem id="3">82,199,604,514,83,200,605,515</elem>
            <elem id="4">83,200,605,515,84,201,606,516</elem>
            <elem id="5">84,201,606,516,85,202,607,517</elem>
            <elem id="6">85,202,607,517,86,203,608,518</elem>
            <elem id="7">86,203,608,518,87,204,609,519</elem>
            <elem id="8">87,204,609,519,88,205,610,520</elem>
            <elem id="9">88,205,610,520,89,206,611,521</elem>
            <elem id="10">89,206,611,521,5,45,522,80</elem>
            <elem id="11">44,117,118,43,513,603,612,504</elem>
            <elem id="12">513,603,612,504,514,604,613,505</elem>
            <elem id="13">514,604,613,505,515,605,614,506</elem>
            <elem id="14">515,605,614,506,516,606,615,507</elem>
            <elem id="15">516,606,615,507,517,607,616,508</elem>
            <elem id="16">517,607,616,508,518,608,617,509</elem>
            <elem id="17">518,608,617,509,519,609,618,510</elem>
            <elem id="18">519,609,618,510,520,610,619,511</elem>
            <elem id="19">520,610,619,511,521,611,620,512</elem>
            <elem id="20">521,611,620,512,80,522,523,79</elem>
<!-- ... 980 like lines cut -->
        </Elements>
        <Surface name="-z">
            <quad4 id="1">1,9,117,44</quad4>
            <quad4 id="2">44,117,118,43</quad4>
            <quad4 id="3">43,118,119,42</quad4>
            <quad4 id="4">42,119,120,41</quad4>
            <quad4 id="5">41,120,121,40</quad4>
            <quad4 id="6">40,121,122,39</quad4>
            <quad4 id="7">39,122,123,38</quad4>
            <quad4 id="8">38,123,124,37</quad4>
            <quad4 id="9">37,124,125,36</quad4>
            <quad4 id="10">36,125,35,4</quad4>
            <quad4 id="11">9,10,126,117</quad4>
            <quad4 id="12">117,126,127,118</quad4>
            <quad4 id="13">118,127,128,119</quad4>
            <quad4 id="14">119,128,129,120</quad4>
            <quad4 id="15">120,129,130,121</quad4>
            <quad4 id="16">121,130,131,122</quad4>
            <quad4 id="17">122,131,132,123</quad4>
            <quad4 id="18">123,132,133,124</quad4>
            <quad4 id="19">124,133,134,125</quad4>
            <quad4 id="20">125,134,34,35</quad4>
<!-- ... 80 like lines cut -->
        </Surface>
        <Surface name="-y">
            <quad4 id="1">1,9,198,81</quad4>
            <quad4 id="2">81,198,199,82</quad4>
            <quad4 id="3">82,199,200,83</quad4>
            <quad4 id="4">83,200,201,84</quad4>
            <quad4 id="5">84,201,202,85</quad4>
            <quad4 id="6">85,202,203,86</quad4>
            <quad4 id="7">86,203,204,87</quad4>
            <quad4 id="8">87,204,205,88</quad4>
            <quad4 id="9">88,205,206,89</quad4>
            <quad4 id="10">89,206,45,5</quad4>
            <quad4 id="11">9,10,207,198</quad4>
            <quad4 id="12">198,207,208,199</quad4>
            <quad4 id="13">199,208,209,200</quad4>
            <quad4 id="14">200,209,210,201</quad4>
            <quad4 id="15">201,210,211,202</quad4>
            <quad4 id="16">202,211,212,203</quad4>
            <quad4 id="17">203,212,213,204</quad4>
            <quad4 id="18">204,213,214,205</quad4>
            <quad4 id="19">205,214,215,206</quad4>
            <quad4 id="20">206,215,46,45</quad4>
<!-- ... 80 like lines cut -->
        </Surface>
        <Surface name="+x">
            <quad4 id="1">2,18,279,90</quad4>
            <quad4 id="2">90,279,280,91</quad4>
            <quad4 id="3">91,280,281,92</quad4>
            <quad4 id="4">92,281,282,93</quad4>
            <quad4 id="5">93,282,283,94</quad4>
            <quad4 id="6">94,283,284,95</quad4>
            <quad4 id="7">95,284,285,96</quad4>
            <quad4 id="8">96,285,286,97</quad4>
            <quad4 id="9">97,286,287,98</quad4>
            <quad4 id="10">98,287,54,6</quad4>
            <quad4 id="11">18,19,288,279</quad4>
            <quad4 id="12">279,288,289,280</quad4>
            <quad4 id="13">280,289,290,281</quad4>
            <quad4 id="14">281,290,291,282</quad4>
            <quad4 id="15">282,291,292,283</quad4>
            <quad4 id="16">283,292,293,284</quad4>
            <quad4 id="17">284,293,294,285</quad4>
            <quad4 id="18">285,294,295,286</quad4>
            <quad4 id="19">286,295,296,287</quad4>
            <quad4 id="20">287,296,55,54</quad4>
<!-- ... 80 like lines cut -->
        </Surface>
        <Surface name="+y">
            <quad4 id="1">3,27,360,99</quad4>
            <quad4 id="2">99,360,361,100</quad4>
            <quad4 id="3">100,361,362,101</quad4>
            <quad4 id="4">101,362,363,102</quad4>
            <quad4 id="5">102,363,364,103</quad4>
            <quad4 id="6">103,364,365,104</quad4>
            <quad4 id="7">104,365,366,105</quad4>
            <quad4 id="8">105,366,367,106</quad4>
            <quad4 id="9">106,367,368,107</quad4>
            <quad4 id="10">107,368,63,7</quad4>
            <quad4 id="11">27,28,369,360</quad4>
            <quad4 id="12">360,369,370,361</quad4>
            <quad4 id="13">361,370,371,362</quad4>
            <quad4 id="14">362,371,372,363</quad4>
            <quad4 id="15">363,372,373,364</quad4>
            <quad4 id="16">364,373,374,365</quad4>
            <quad4 id="17">365,374,375,366</quad4>
            <quad4 id="18">366,375,376,367</quad4>
            <quad4 id="19">367,376,377,368</quad4>
            <quad4 id="20">368,377,64,63</quad4>
<!-- ... 80 like lines cut -->
        </Surface>
        <Surface name="-x">
            <quad4 id="1">4,36,441,108</quad4>
            <quad4 id="2">108,441,442,109</quad4>
            <quad4 id="3">109,442,443,110</quad4>
            <quad4 id="4">110,443,444,111</quad4>
            <quad4 id="5">111,444,445,112</quad4>
            <quad4 id="6">112,445,446,113</quad4>
            <quad4 id="7">113,446,447,114</quad4>
            <quad4 id="8">114,447,448,115</quad4>
            <quad4 id="9">115,448,449,116</quad4>
            <quad4 id="10">116,449,72,8</quad4>
            <quad4 id="11">36,37,450,441</quad4>
            <quad4 id="12">441,450,451,442</quad4>
            <quad4 id="13">442,451,452,443</quad4>
            <quad4 id="14">443,452,453,444</quad4>
            <quad4 id="15">444,453,454,445</quad4>
            <quad4 id="16">445,454,455,446</quad4>
            <quad4 id="17">446,455,456,447</quad4>
            <quad4 id="18">447,456,457,448</quad4>
            <quad4 id="19">448,457,458,449</quad4>
            <quad4 id="20">449,458,73,72</quad4>
<!-- ... 80 like lines cut -->
        </Surface>
        <Surface name="+z">
            <quad4 id="1">5,45,522,80</quad4>
            <quad4 id="2">80,522,523,79</quad4>
            <quad4 id="3">79,523,524,78</quad4>
            <quad4 id="4">78,524,525,77</quad4>
            <quad4 id="5">77,525,526,76</quad4>
            <quad4 id="6">76,526,527,75</quad4>
            <quad4 id="7">75,527,528,74</quad4>
            <quad4 id="8">74,528,529,73</quad4>
            <quad4 id="9">73,529,530,72</quad4>
            <quad4 id="10">72,530,71,8</quad4>
            <quad4 id="11">45,46,531,522</quad4>
            <quad4 id="12">522,531,532,523</quad4>
            <quad4 id="13">523,532,533,524</quad4>
            <quad4 id="14">524,533,534,525</quad4>
            <quad4 id="15">525,534,535,526</quad4>
            <quad4 id="16">526,535,536,527</quad4>
            <quad4 id="17">527,536,537,528</quad4>
            <quad4 id="18">528,537,538,529</quad4>
            <quad4 id="19">529,538,539,530</quad4>
            <quad4 id="20">530,539,70,71</quad4>
<!-- ... 80 like lines cut -->
        </Surface>
        <NodeSet name="-z">1,2,3,4,9,10,11,12,13,14,15,16,17,18,19,20,21,22,23,24,25,26,27,28,29,30,31,32,33,34,35,36,37,38,39,40,41,42,43,44,117,118,119,120,121,122,123,124,125,126,127,128,129,130,131,132,133,134,135,136,137,138,139,140,141,142,143,144,145,146,147,148,149,150,151,152,153,154,155,156,157,158,159,160,161,162,163,164,165,166,167,168,169,170,171,172,173,174,175,176,177,178,179,180,18
        <NodeSet name="-y">1,2,5,6,9,10,11,12,13,14,15,16,17,45,46,47,48,49,50,51,52,53,81,82,83,84,85,86,87,88,89,90,91,92,93,94,95,96,97,98,198,199,200,201,202,203,204,205,206,207,208,209,210,211,212,213,214,215,216,217,218,219,220,221,222,223,224,225,226,227,228,229,230,231,232,233,234,235,236,237,238,239,240,241,242,243,244,245,246,247,248,249,250,251,252,253,254,255,256,257,258,259,260,261,26
        <NodeSet name="+x">2,3,6,7,18,19,20,21,22,23,24,25,26,54,55,56,57,58,59,60,61,62,90,91,92,93,94,95,96,97,98,99,100,101,102,103,104,105,106,107,279,280,281,282,283,284,285,286,287,288,289,290,291,292,293,294,295,296,297,298,299,300,301,302,303,304,305,306,307,308,309,310,311,312,313,314,315,316,317,318,319,320,321,322,323,324,325,326,327,328,329,330,331,332,333,334,335,336,337,338,339,340,3
        <NodeSet name="+y">3,4,7,8,27,28,29,30,31,32,33,34,35,63,64,65,66,67,68,69,70,71,99,100,101,102,103,104,105,106,107,108,109,110,111,112,113,114,115,116,360,361,362,363,364,365,366,367,368,369,370,371,372,373,374,375,376,377,378,379,380,381,382,383,384,385,386,387,388,389,390,391,392,393,394,395,396,397,398,399,400,401,402,403,404,405,406,407,408,409,410,411,412,413,414,415,416,417,418,419,
        <NodeSet name="-x">1,4,5,8,36,37,38,39,40,41,42,43,44,72,73,74,75,76,77,78,79,80,81,82,83,84,85,86,87,88,89,108,109,110,111,112,113,114,115,116,441,442,443,444,445,446,447,448,449,450,451,452,453,454,455,456,457,458,459,460,461,462,463,464,465,466,467,468,469,470,471,472,473,474,475,476,477,478,479,480,481,482,483,484,485,486,487,488,489,490,491,492,493,494,495,496,497,498,499,500,501,502,
        <NodeSet name="+z">5,6,7,8,45,46,47,48,49,50,51,52,53,54,55,56,57,58,59,60,61,62,63,64,65,66,67,68,69,70,71,72,73,74,75,76,77,78,79,80,522,523,524,525,526,527,528,529,530,531,532,533,534,535,536,537,538,539,540,541,542,543,544,545,546,547,548,549,550,551,552,553,554,555,556,557,558,559,560,561,562,563,564,565,566,567,568,569,570,571,572,573,574,575,576,577,578,579,580,581,582,583,584,585,5
    </Mesh>
    <MeshDomains>
        <SolidDomain name="volume" mat="Material 1" />
    </MeshDomains>
    <Step>
        <step id="1" name="Step 1">
            <Control>
                <analysis>STATIC</analysis>
                <time_steps>20</time_steps>
                <step_size>0.1</step_size>
                <plot_zero_state>0</plot_zero_state>
                <plot_range>0,-1</plot_range>
                <plot_level>PLOT_MAJOR_ITRS</plot_level>
                <output_level>OUTPUT_MAJOR_ITRS</output_level>
                <plot_stride>1</plot_stride>
                <adaptor_re_solve>0</adaptor_re_solve>
                <time_stepper type="default">
                    <max_retries>5</max_retries>
                    <opt_iter>10</opt_iter>
                    <dtmin>0</dtmin>
                    <dtmax>0.1</dtmax>
                    <aggressiveness>0</aggressiveness>
                    <cutback>0.5</cutback>
                    <dtforce>0</dtforce>
                </time_stepper>
                <solver type="solid">
                    <symmetric_stiffness>symmetric</symmetric_stiffness>
                    <equation_scheme>staggered</equation_scheme>
                    <equation_order>default</equation_order>
                    <optimize_bw>0</optimize_bw>
                    <lstol>0.9</lstol>
                    <lsmin>0.01</lsmin>
                    <lsiter>5</lsiter>
                    <max_refs>15</max_refs>
                    <check_zero_diagonal>0</check_zero_diagonal>
                    <zero_diagonal_tol>0</zero_diagonal_tol>
                    <force_partition>0</force_partition>
                    <reform_each_time_step>1</reform_each_time_step>
                    <reform_augment>0</reform_augment>
                    <diverge_reform>1</diverge_reform>
                    <min_residual>1e-20</min_residual>
                    <max_residual>0</max_residual>
                    <dtol>0.001</dtol>
                    <etol>0.01</etol>
                    <rtol>0</rtol>
                    <rhoi>-2</rhoi>
                    <alpha>1</alpha>
                    <beta>0.25</beta>
                    <gamma>0.5</gamma>
                    <logSolve>0</logSolve>
                    <arc_length>0</arc_length>
                    <arc_length_scale>0</arc_length_scale>
                    <qn_method type="BFGS">
                        <max_ups>10</max_ups>
                        <max_buffer_size>0</max_buffer_size>
                        <cycle_buffer>1</cycle_buffer>
                        <cmax>100000</cmax>
                    </qn_method>
                </solver>
            </Control>
            <Boundary>
                <bc name="Prescribed Displacement X" node_set="+x" type="prescribed displacement">
                    <dof>x</dof>
                    <value lc="1">1</value>
                    <relative>0</relative>
                </bc>
                <bc name="Prescribed Displacement Y" node_set="+y" type="prescribed displacement">
                    <dof>y</dof>
                    <value lc="1">1</value>
                    <relative>0</relative>
                </bc>
                <bc name="fix_x" node_set="-x" type="zero displacement">
                    <x_dof>1</x_dof>
                    <y_dof>0</y_dof>
                    <z_dof>0</z_dof>
                </bc>
                <bc name="fix_y" node_set="-y" type="zero displacement">
                    <x_dof>0</x_dof>
                    <y_dof>1</y_dof>
                    <z_dof>0</z_dof>
                </bc>
                <bc name="fix_z" node_set="-z" type="zero displacement">
                    <x_dof>0</x_dof>
                    <y_dof>0</y_dof>
                    <z_dof>1</z_dof>
                </bc>
            </Boundary>
            </step>
    </Step>
    <LoadData>
        <load_controller id="1" name="LC1" type="loadcurve">
            <interpolate>LINEAR</interpolate>
            <extend>EXTRAPOLATE</extend>
            <points>
                <pt>0,0</pt>
                <pt>1,1</pt>
                <pt>2,0</pt>
            </points>
        </load_controller>
    </LoadData>
    <Output>
        <plotfile type="febio">
            <var type="displacement" />
            <var type="stress" />
            <var type="relative volume" />
        </plotfile>
    </Output>
</febio_spec>
